%chk=ch4.chk
%nprocs=4
%mem=1000mw
# B3LYP/GEN gfinput OPT FREQ scf=xqc 6D

BEB step 1: geom and freqs for ch4

0 1
 C                  0.00000000    0.00000000    0.00000000
 H                  0.00000000    0.00000000    1.06999996
 H                 -0.00000000   -1.00880563   -0.35666665
 H                 -0.87365130    0.50440282   -0.35666665
 H                  0.87365130    0.50440282   -0.35666665

C H 0
6-31G(d)
****

