%chk=BiFClBrIAt.chk
%nprocs=8
%mem=2000mw
# B3LYP/GEN gfinput OPT FREQ scf=xqc pseudo=read

BEB step 1: geom and freqs for BiFClBrIAt

0 1
 Bi                -0.96638659    0.67226890    0.00000000
 F                 -0.96638659    0.67226890    2.10000000
 Cl                -0.96638659    0.67226890   -2.51000000
 Br                -2.29638659    2.97589647    0.00000000
 I                 -2.39138659   -1.79590350    0.00000000
 At                 2.07361341    0.67226890    0.00000000

F 0
6-31G(d)
****
Br Cl 0
6-31G(d)
****
Bi 0
SDD
****
I 0
SDD
 D   1 1.00       0.000000000000
      3.0200000000e-01  0.1000000000D+01
****
At 0
SDD
****

Bi I At 0
SDD

