%chk=ZnEt2.chk
%nprocs=6
%mem=4000mw
# HF/GEN geom=check guess=check scf=xqc stable=opt

HF stabilization to precede BEB step 4

0 1

C H 0
6-311+G(d,p)
****
Zn 0
6-311+G(d,p)
****

--Link1--
%chk=ZnEt2.chk
%nprocs=6
%mem=4000mw
# EPT(OVGF+P3,ReadOrbitals)/GEN gfinput geom=check guess=check scf=xqc pop(all,thresh=1)

BEB step 4: EPT B for ZnEt2

0 1

C H 0
6-311+G(d,p)
****
Zn 0
6-311+G(d,p)
****

1 19 19 19

