%chk=ZnEt2.chk
%nprocs=6
%mem=4000mw
# HF/GEN geom=check guess=check scf=xqc stable=opt

HF stabilization to precede BEB step 5

1 2

C H 0
6-311+G(d,p)
****
Zn 0
6-311+G(d,p)
****

--Link1--
%chk=ZnEt2.chk
%nprocs=6
%mem=4000mw
# EPT(OVGF+P3,ReadOrbitals)/GEN gfinput geom=check guess=check scf=xqc pop(all,thresh=1)

BEB step 5: cation EPT for VIE2 for ZnEt2

1 2

C H 0
6-311+G(d,p)
****
Zn 0
6-311+G(d,p)
****

19 19 18 18

